/*--------------------------------*- C++ -*----------------------------------*\
| =========                 |                                                 |
| \\      /  F ield         | OpenFOAM: The Open Source CFD Toolbox           |
|  \\    /   O peration     | Version:  v2312                                 |
|   \\  /    A nd           | Website:  www.openfoam.com                      |
|    \\/     M anipulation  |                                                 |
\*---------------------------------------------------------------------------*/
FoamFile
{
    version     2.0;
    format      ascii;
    class       dictionary;
    object      blockMeshDict;
}
// * * * * * * * * * * * * * * * * * * * * * * * * * * * * * * * * * * * * * //


converToMeters 1.0;
vertices
(
    (-0.15 0 0)
    (0 0 0)
    (1.7 0 0)
    (-0.15 0 0.1)
    (0 0 0.1)
    (1.7 0 0.1) 
    (-0.15 0.3 0)
    (0 0.285 0)
    (1.7 0.2635964067000028 0 )
    (-0.15 0.3 0.1)
    (0 0.285 0.1)
    (1.7 0.2635964067000028 0.1)
);

blocks
(
    hex (0 1 7 6 3 4 10 9) (50 250 1) simpleGrading (0.1 100 1)
    hex (1 2 8 7 4 5 11 10) (300 250 1) simpleGrading (30 100 1)
);

edges
(
	spline 6 7 (
		(-0.14815 0.3 0) 
		(-0.14629999999999999 0.3 0) 
		(-0.14445 0.3 0) 
		(-0.1426 0.3 0) 
		(-0.14075 0.3 0) 
		(-0.1389 0.3 0) 
		(-0.13705 0.3 0) 
		(-0.1352 0.3 0) 
		(-0.13335 0.3 0) 
		(-0.1315 0.3 0) 
		(-0.12965 0.3 0) 
		(-0.1278 0.3 0) 
		(-0.12595 0.3 0) 
		(-0.12409999999999999 0.3 0) 
		(-0.12225 0.3 0) 
		(-0.1204 0.3 0) 
		(-0.11854999999999999 0.3 0) 
		(-0.1167 0.3 0) 
		(-0.11485 0.3 0) 
		(-0.11299999999999999 0.3 0) 
		(-0.11115 0.3 0) 
		(-0.1093 0.3 0) 
		(-0.10744999999999999 0.3 0) 
		(-0.1056 0.3 0) 
		(-0.10375 0.3 0) 
		(-0.10189999999999999 0.3 0) 
		(-0.10005 0.3 0) 
		(-0.0982 0.3 0) 
		(-0.09634999999999999 0.3 0) 
		(-0.0945 0.3 0) 
		(-0.09265 0.3 0) 
		(-0.09079999999999999 0.3 0) 
		(-0.08895 0.3 0) 
		(-0.0871 0.3 0) 
		(-0.08524999999999999 0.3 0) 
		(-0.0834 0.3 0) 
		(-0.08155 0.3 0) 
		(-0.0797 0.3 0) 
		(-0.07785 0.3 0) 
		(-0.076 0.3 0) 
		(-0.07415 0.3 0) 
		(-0.0723 0.3 0) 
		(-0.07045 0.3 0) 
		(-0.0686 0.3 0) 
		(-0.06675 0.3 0) 
		(-0.0649 0.3 0) 
		(-0.06305 0.3 0) 
		(-0.061200000000000004 0.3 0) 
		(-0.05935 0.3 0) 
		(-0.057499999999999996 0.3 0) 
		(-0.055650000000000005 0.3 0) 
		(-0.0538 0.3 0) 
		(-0.051949999999999996 0.3 0) 
		(-0.050100000000000006 0.3 0) 
		(-0.04825 0.3 0) 
		(-0.0464 0.3 0) 
		(-0.044550000000000006 0.3 0) 
		(-0.0427 0.3 0) 
		(-0.04085 0.3 0) 
		(-0.03900000000000001 0.3 0) 
		(-0.03715 0.3 0) 
		(-0.0353 0.3 0) 
		(-0.03345000000000001 0.3 0) 
		(-0.0316 0.3 0) 
		(-0.02975 0.3 0) 
		(-0.027900000000000008 0.3 0) 
		(-0.026050000000000004 0.3 0) 
		(-0.0242 0.3 0) 
		(-0.02235000000000001 0.2988531641090934 0) 
		(-0.02049999999999999 0.2976184950570221 0) 
		(-0.01865 0.29640028077380026 0) 
		(-0.01680000000000001 0.2951983475712957 0) 
		(-0.014949999999999991 0.29401252300051667 0) 
		(-0.0131 0.2928426358462794 0) 
		(-0.01125000000000001 0.29168851612188545 0) 
		(-0.009399999999999992 0.2905499950638105 0) 
		(-0.007550000000000001 0.2894269051264035 0) 
		(-0.005700000000000011 0.2883190799765963 0) 
		(-0.0038499999999999923 0.2872263544886242 0) 
		(-0.0020000000000000018 0.28614856473875716 0) 
		(-0.00015000000000001124 0.28508554800004154 0) 
	)
	spline 9 10 (
		(-0.14815 0.3 0.1) 
		(-0.14629999999999999 0.3 0.1) 
		(-0.14445 0.3 0.1) 
		(-0.1426 0.3 0.1) 
		(-0.14075 0.3 0.1) 
		(-0.1389 0.3 0.1) 
		(-0.13705 0.3 0.1) 
		(-0.1352 0.3 0.1) 
		(-0.13335 0.3 0.1) 
		(-0.1315 0.3 0.1) 
		(-0.12965 0.3 0.1) 
		(-0.1278 0.3 0.1) 
		(-0.12595 0.3 0.1) 
		(-0.12409999999999999 0.3 0.1) 
		(-0.12225 0.3 0.1) 
		(-0.1204 0.3 0.1) 
		(-0.11854999999999999 0.3 0.1) 
		(-0.1167 0.3 0.1) 
		(-0.11485 0.3 0.1) 
		(-0.11299999999999999 0.3 0.1) 
		(-0.11115 0.3 0.1) 
		(-0.1093 0.3 0.1) 
		(-0.10744999999999999 0.3 0.1) 
		(-0.1056 0.3 0.1) 
		(-0.10375 0.3 0.1) 
		(-0.10189999999999999 0.3 0.1) 
		(-0.10005 0.3 0.1) 
		(-0.0982 0.3 0.1) 
		(-0.09634999999999999 0.3 0.1) 
		(-0.0945 0.3 0.1) 
		(-0.09265 0.3 0.1) 
		(-0.09079999999999999 0.3 0.1) 
		(-0.08895 0.3 0.1) 
		(-0.0871 0.3 0.1) 
		(-0.08524999999999999 0.3 0.1) 
		(-0.0834 0.3 0.1) 
		(-0.08155 0.3 0.1) 
		(-0.0797 0.3 0.1) 
		(-0.07785 0.3 0.1) 
		(-0.076 0.3 0.1) 
		(-0.07415 0.3 0.1) 
		(-0.0723 0.3 0.1) 
		(-0.07045 0.3 0.1) 
		(-0.0686 0.3 0.1) 
		(-0.06675 0.3 0.1) 
		(-0.0649 0.3 0.1) 
		(-0.06305 0.3 0.1) 
		(-0.061200000000000004 0.3 0.1) 
		(-0.05935 0.3 0.1) 
		(-0.057499999999999996 0.3 0.1) 
		(-0.055650000000000005 0.3 0.1) 
		(-0.0538 0.3 0.1) 
		(-0.051949999999999996 0.3 0.1) 
		(-0.050100000000000006 0.3 0.1) 
		(-0.04825 0.3 0.1) 
		(-0.0464 0.3 0.1) 
		(-0.044550000000000006 0.3 0.1) 
		(-0.0427 0.3 0.1) 
		(-0.04085 0.3 0.1) 
		(-0.03900000000000001 0.3 0.1) 
		(-0.03715 0.3 0.1) 
		(-0.0353 0.3 0.1) 
		(-0.03345000000000001 0.3 0.1) 
		(-0.0316 0.3 0.1) 
		(-0.02975 0.3 0.1) 
		(-0.027900000000000008 0.3 0.1) 
		(-0.026050000000000004 0.3 0.1) 
		(-0.0242 0.3 0.1) 
		(-0.02235000000000001 0.2988531641090934 0.1) 
		(-0.02049999999999999 0.2976184950570221 0.1) 
		(-0.01865 0.29640028077380026 0.1) 
		(-0.01680000000000001 0.2951983475712957 0.1) 
		(-0.014949999999999991 0.29401252300051667 0.1) 
		(-0.0131 0.2928426358462794 0.1) 
		(-0.01125000000000001 0.29168851612188545 0.1) 
		(-0.009399999999999992 0.2905499950638105 0.1) 
		(-0.007550000000000001 0.2894269051264035 0.1) 
		(-0.005700000000000011 0.2883190799765963 0.1) 
		(-0.0038499999999999923 0.2872263544886242 0.1) 
		(-0.0020000000000000018 0.28614856473875716 0.1) 
		(-0.00015000000000001124 0.28508554800004154 0.1) 
	)
	spline 7 8 (
		(0.001700000000000007 0.2840371427370524 0) 
		(0.0035499999999999976 0.2830031886006568 0) 
		(0.005399999999999988 0.28198352642278757 0) 
		(0.0072500000000000064 0.28097799821122743 0) 
		(0.009099999999999997 0.2799864471444045 0) 
		(0.010949999999999988 0.27900871756619783 0) 
		(0.012800000000000006 0.27804465498075365 0) 
		(0.014649999999999996 0.2770941060473127 0) 
		(0.016499999999999987 0.2761569185750479 0) 
		(0.018350000000000005 0.27523294151791267 0) 
		(0.020199999999999996 0.2743220249694998 0) 
		(0.022049999999999986 0.2734240201579115 0) 
		(0.023900000000000005 0.2725387794406396 0) 
		(0.025749999999999995 0.2716661562994564 0) 
		(0.027599999999999986 0.2708060053353167 0) 
		(0.029450000000000004 0.26995818226326984 0) 
		(0.031299999999999994 0.2691225439073829 0) 
		(0.033149999999999985 0.26829894819567407 0) 
		(0.035 0.2674872541550574 0) 
		(0.036849999999999994 0.2666873219062974 0) 
		(0.038699999999999984 0.2658990126589749 0) 
		(0.04055 0.2651221887064632 0) 
		(0.04239999999999999 0.2643567134209151 0) 
		(0.044249999999999984 0.2636024512482606 0) 
		(0.0461 0.2628592677032149 0) 
		(0.04794999999999999 0.2621270293642977 0) 
		(0.04979999999999998 0.26140560386886263 0) 
		(0.05165 0.2606948599081374 0) 
		(0.05349999999999999 0.25999466722227477 0) 
		(0.05534999999999998 0.2593048965954142 0) 
		(0.0572 0.2586254198507542 0) 
		(0.05904999999999999 0.25795610984563483 0) 
		(0.06089999999999998 0.2572968404666317 0) 
		(0.06275 0.2566474866246597 0) 
		(0.06459999999999999 0.2560079242500885 0) 
		(0.06644999999999998 0.25537803028786743 0) 
		(0.0683 0.25475768269266214 0) 
		(0.07014999999999999 0.2541467604240013 0) 
		(0.07199999999999998 0.25354514344143386 0) 
		(0.07385 0.25295271269969777 0) 
		(0.07569999999999999 0.25236935014389833 0) 
		(0.07754999999999998 0.2517949387046977 0) 
		(0.0794 0.25122936229351556 0) 
		(0.08124999999999999 0.25067250579773925 0) 
		(0.08309999999999998 0.2501242550759456 0) 
		(0.08495 0.249584496953133 0) 
		(0.08679999999999999 0.24905311921596435 0) 
		(0.08864999999999998 0.24853001060802016 0) 
		(0.0905 0.2480150608250628 0) 
		(0.09234999999999999 0.24750816051031155 0) 
		(0.09419999999999998 0.2470092012497275 0) 
		(0.09605 0.2465180755673101 0) 
		(0.09789999999999999 0.24603467692040373 0) 
		(0.09974999999999998 0.245558899695015 0) 
		(0.1016 0.245090639201141 0) 
		(0.10345000000000001 0.2446297916681079 0) 
		(0.10529999999999998 0.24417625423992043 0) 
		(0.10715 0.24372992497062174 0) 
		(0.10900000000000001 0.24329070281966442 0) 
		(0.11084999999999998 0.24285848764729148 0) 
		(0.1127 0.24243318020992877 0) 
		(0.11455000000000001 0.2420146821555873 0) 
		(0.11639999999999998 0.2416028960192768 0) 
		(0.11825 0.24119772521842966 0) 
		(0.12010000000000001 0.24079907404833564 0) 
		(0.12194999999999998 0.24040684767758708 0) 
		(0.1238 0.24002095214353503 0) 
		(0.12565 0.2396412943477557 0) 
		(0.12749999999999997 0.2392677820515279 0) 
		(0.12935 0.23890032387132104 0) 
		(0.1312 0.23853882927429365 0) 
		(0.13304999999999997 0.23818320857380262 0) 
		(0.1349 0.23783337292492324 0) 
		(0.13675 0.2374892343199798 0) 
		(0.13859999999999997 0.23715070558408677 0) 
		(0.14045 0.23681770037070077 0) 
		(0.1423 0.2364901331571831 0) 
		(0.14414999999999997 0.23616791924037306 0) 
		(0.146 0.23585097473217173 0) 
		(0.14785 0.2355392165551367 0) 
		(0.14969999999999997 0.23523256243808705 0) 
		(0.15155 0.23493093091171946 0) 
		(0.1534 0.23463424130423455 0) 
		(0.15524999999999997 0.23434241373697426 0) 
		(0.1571 0.23405536912006944 0) 
		(0.15895 0.23377302914809872 0) 
		(0.16079999999999997 0.23349531629575737 0) 
		(0.16265 0.23322215381353728 0) 
		(0.1645 0.23295346572341746 0) 
		(0.16634999999999997 0.23268917681456514 0) 
		(0.1682 0.23242921263904753 0) 
		(0.17005 0.2321734995075545 0) 
		(0.17189999999999997 0.2319219644851315 0) 
		(0.17375 0.23167453538692334 0) 
		(0.1756 0.2314311407739289 0) 
		(0.17744999999999997 0.23119170994876592 0) 
		(0.1793 0.23095617295144696 0) 
		(0.18115 0.2307244605551658 0) 
		(0.18299999999999997 0.2304965042620945 0) 
		(0.18485 0.23027223629919114 0) 
		(0.1867 0.23005158961401825 0) 
		(0.18854999999999997 0.22983449787057192 0) 
		(0.19039999999999999 0.2296208954451214 0) 
		(0.19225 0.22941071742205965 0) 
		(0.19409999999999997 0.22920389958976434 0) 
		(0.19594999999999999 0.2290003784364693 0) 
		(0.1978 0.22880009114614733 0) 
		(0.19964999999999997 0.22860297559440304 0) 
		(0.20149999999999998 0.22840897034437624 0) 
		(0.20335 0.22821801464265679 0) 
		(0.20519999999999997 0.22803004841520924 0) 
		(0.20704999999999998 0.2278450122633086 0) 
		(0.2089 0.22766284745948673 0) 
		(0.21074999999999997 0.22748349594348927 0) 
		(0.21259999999999998 0.22730690031824324 0) 
		(0.21445 0.22713300384583535 0) 
		(0.21629999999999996 0.22696175044350114 0) 
		(0.21814999999999998 0.22679308467962433 0) 
		(0.22 0.2266269517697472 0) 
		(0.22184999999999996 0.22646329757259168 0) 
		(0.22369999999999998 0.22630206858609073 0) 
		(0.22555 0.22614321194343076 0) 
		(0.22739999999999996 0.2259866754091045 0) 
		(0.22924999999999998 0.2258324073749745 0) 
		(0.2311 0.22568035685634746 0) 
		(0.23294999999999996 0.2255304734880592 0) 
		(0.23479999999999998 0.22538270752056996 0) 
		(0.23665 0.22523700981607098 0) 
		(0.23849999999999996 0.22509333184460092 0) 
		(0.24034999999999998 0.22495162568017402 0) 
		(0.2422 0.2248118439969176 0) 
		(0.24404999999999996 0.22467394006522134 0) 
		(0.24589999999999998 0.22453786774789689 0) 
		(0.24775 0.22440358149634762 0) 
		(0.24959999999999996 0.22427103634674989 0) 
		(0.25144999999999995 0.22414018791624427 0) 
		(0.25329999999999997 0.22401099239913763 0) 
		(0.25515 0.22388340656311645 0) 
		(0.257 0.22375738774546963 0) 
		(0.25885 0.2236328938493232 0) 
		(0.26069999999999993 0.22350988333988459 0) 
		(0.26254999999999995 0.22338831524069855 0) 
		(0.26439999999999997 0.2232681491299129 0) 
		(0.26625 0.22314934513655574 0) 
		(0.2681 0.22303186393682223 0) 
		(0.26995 0.2229156667503733 0) 
		(0.27179999999999993 0.2228007153366442 0) 
		(0.27364999999999995 0.2226869719911636 0) 
		(0.27549999999999997 0.22257439954188424 0) 
		(0.27735 0.22246296134552315 0) 
		(0.2792 0.22235262128391323 0) 
		(0.28105 0.22224334376036545 0) 
		(0.28289999999999993 0.22213509369604134 0) 
		(0.28474999999999995 0.22202783652633637 0) 
		(0.28659999999999997 0.22192153819727412 0) 
		(0.28845 0.2218161651619109 0) 
		(0.2903 0.22171168437675096 0) 
		(0.29215 0.2216080632981729 0) 
		(0.29399999999999993 0.2215052698788657 0) 
		(0.29584999999999995 0.2214032725642767 0) 
		(0.29769999999999996 0.2213020402890691 0) 
		(0.29955 0.22120154247359095 0) 
		(0.3014 0.22110174902035418 0) 
		(0.30325 0.22100263031052475 0) 
		(0.3050999999999999 0.22090415720042322 0) 
		(0.30694999999999995 0.220806301018036 0) 
		(0.30879999999999996 0.22070903355953728 0) 
		(0.31065 0.22061232708582182 0) 
		(0.3125 0.2205161543190479 0) 
		(0.31435 0.22042048843919151 0) 
		(0.3161999999999999 0.22032530308061074 0) 
		(0.31804999999999994 0.22023057232862128 0) 
		(0.31989999999999996 0.22013627071608202 0) 
		(0.32175 0.22004237321999168 0) 
		(0.3236 0.21994885525809624 0) 
		(0.32545 0.21985569268550662 0) 
		(0.3272999999999999 0.21976286179132729 0) 
		(0.32914999999999994 0.21967033929529547 0) 
		(0.33099999999999996 0.2195781023444309 0) 
		(0.33285 0.21948612850969657 0) 
		(0.3347 0.2193943957826695 0) 
		(0.33655 0.21930288257222333 0) 
		(0.3383999999999999 0.21921156770121972 0) 
		(0.34024999999999994 0.21912043040321258 0) 
		(0.34209999999999996 0.21902945031916124 0) 
		(0.34395 0.21893860749415503 0) 
		(0.3458 0.21884788237414868 0) 
		(0.34765 0.21875725580270788 0) 
		(0.3494999999999999 0.21866670901776564 0) 
		(0.35134999999999994 0.21857622364838974 0) 
		(0.35319999999999996 0.2184857817115603 0) 
		(0.35505 0.218395365608958 0) 
		(0.3569 0.21830495812376383 0) 
		(0.3587499999999999 0.2182145424174679 0) 
		(0.3605999999999999 0.2181241020266908 0) 
		(0.36244999999999994 0.21803362086001413 0) 
		(0.36429999999999996 0.21794308319482228 0) 
		(0.36615 0.2178524736741548 0) 
		(0.368 0.21776177730356977 0) 
		(0.3698499999999999 0.2176709794480172 0) 
		(0.3716999999999999 0.21758006582872338 0) 
		(0.37354999999999994 0.21748902252008603 0) 
		(0.37539999999999996 0.21739783594658021 0) 
		(0.37725 0.2173064928796743 0) 
		(0.3791 0.21721498043475693 0) 
		(0.3809499999999999 0.21712328606807518 0) 
		(0.3827999999999999 0.21703139757368242 0) 
		(0.38464999999999994 0.2169393030803975 0) 
		(0.38649999999999995 0.21684699104877445 0) 
		(0.38835 0.21675445026808257 0) 
		(0.3902 0.21666166985329766 0) 
		(0.3920499999999999 0.21656863924210354 0) 
		(0.3938999999999999 0.21647534819190412 0) 
		(0.39574999999999994 0.21638178677684675 0) 
		(0.39759999999999995 0.2162879453848556 0) 
		(0.39944999999999997 0.2161938147146758 0) 
		(0.4013 0.21609938577292878 0) 
		(0.4031499999999999 0.21600464987117726 0) 
		(0.4049999999999999 0.21590959862300202 0) 
		(0.40684999999999993 0.21581422394108876 0) 
		(0.40869999999999995 0.215718518034325 0) 
		(0.41054999999999997 0.2156224734049093 0) 
		(0.4124 0.21552608284546954 0) 
		(0.4142499999999999 0.21542933943619252 0) 
		(0.4160999999999999 0.21533223654196412 0) 
		(0.41794999999999993 0.21523476780952058 0) 
		(0.41979999999999995 0.21513692716460925 0) 
		(0.42164999999999997 0.21503870880916165 0) 
		(0.4235 0.21494010721847573 0) 
		(0.4253499999999999 0.21484111713840937 0) 
		(0.4271999999999999 0.21474173358258483 0) 
		(0.42904999999999993 0.21464195182960372 0) 
		(0.43089999999999995 0.21454176742027167 0) 
		(0.43274999999999997 0.21444117615483518 0) 
		(0.4346 0.21434017409022854 0) 
		(0.4364499999999999 0.2142387575373307 0) 
		(0.4382999999999999 0.21413692305823362 0) 
		(0.44014999999999993 0.21403466746352115 0) 
		(0.44199999999999995 0.21393198780955855 0) 
		(0.44384999999999997 0.21382888139579234 0) 
		(0.4457 0.21372534576206112 0) 
		(0.4475499999999999 0.21362137868591724 0) 
		(0.4493999999999999 0.21351697817995827 0) 
		(0.45124999999999993 0.21341214248917062 0) 
		(0.45309999999999995 0.21330687008828225 0) 
		(0.45494999999999997 0.2132011596791267 0) 
		(0.4568 0.21309501018801832 0) 
		(0.4586499999999999 0.21298842076313734 0) 
		(0.4604999999999999 0.21288139077192553 0) 
		(0.4623499999999999 0.212773919798494 0) 
		(0.46419999999999995 0.21266600764103896 0) 
		(0.46604999999999996 0.21255765430927137 0) 
		(0.4679 0.21244886002185445 0) 
		(0.4697499999999999 0.21233962520385347 0) 
		(0.4715999999999999 0.21222995048419566 0) 
		(0.4734499999999999 0.2121198366931409 0) 
		(0.47529999999999994 0.21200928485976314 0) 
		(0.47714999999999996 0.21189829620944187 0) 
		(0.479 0.21178687216136555 0) 
		(0.4808499999999999 0.21167501432604421 0) 
		(0.4826999999999999 0.21156272450283392 0) 
		(0.4845499999999999 0.2114500046774706 0) 
		(0.48639999999999994 0.21133685701961635 0) 
		(0.48824999999999996 0.21122328388041486 0) 
		(0.4901 0.21110928779005744 0) 
		(0.4919499999999999 0.21099487145536147 0) 
		(0.4937999999999999 0.21088003775735725 0) 
		(0.4956499999999999 0.21076478974888707 0) 
		(0.49749999999999994 0.21064913065221433 0) 
		(0.49934999999999996 0.21053306385664353 0) 
		(0.5012 0.21041659291615064 0) 
		(0.5030499999999999 0.210299721547024 0) 
		(0.5048999999999999 0.21018245362551763 0) 
		(0.5067499999999999 0.2100647931855114 0) 
		(0.5085999999999999 0.20994674441618635 0) 
		(0.51045 0.20982831165970756 0) 
		(0.5123 0.20970949940891867 0) 
		(0.5141499999999999 0.2095903123050467 0) 
		(0.5159999999999999 0.20947075513541938 0) 
		(0.5178499999999999 0.20935083283118944 0) 
		(0.5196999999999999 0.209230550465074 0) 
		(0.52155 0.2091099132491001 0) 
		(0.5234 0.20898892653236545 0) 
		(0.5252499999999999 0.2088675957988054 0) 
		(0.5270999999999999 0.20874592666497438 0) 
		(0.5289499999999999 0.2086239248778356 0) 
		(0.5307999999999999 0.2085015963125622 0) 
		(0.53265 0.208378946970349 0) 
		(0.5345 0.20825598297623507 0) 
		(0.5363499999999999 0.20813271057693675 0) 
		(0.5381999999999999 0.20800913613869104 0) 
		(0.5400499999999999 0.20788526614511085 0) 
		(0.5418999999999999 0.20776110719504906 0) 
		(0.54375 0.20763666600047478 0) 
		(0.5456 0.20751194938436004 0) 
		(0.5474499999999999 0.20738696427857597 0) 
		(0.5492999999999999 0.20726171772180108 0) 
		(0.5511499999999999 0.20713621685743921 0) 
		(0.5529999999999999 0.20701046893154965 0) 
		(0.55485 0.206884481290785 0) 
		(0.5567 0.20675826138034317 0) 
		(0.5585499999999999 0.2066318167419278 0) 
		(0.5603999999999999 0.20650515501171907 0) 
		(0.5622499999999999 0.20637828391835725 0) 
		(0.5640999999999999 0.2062512112809353 0) 
		(0.56595 0.20612394500700182 0) 
		(0.5678 0.2059964930905769 0) 
		(0.5696499999999999 0.20586886361017487 0) 
		(0.5714999999999999 0.2057410647268418 0) 
		(0.5733499999999999 0.2056131046822014 0) 
		(0.5751999999999999 0.2054849917965106 0) 
		(0.57705 0.2053567344667291 0) 
		(0.5789 0.20522834116459646 0) 
		(0.5807499999999999 0.20509982043472114 0) 
		(0.5825999999999999 0.20497118089267985 0) 
		(0.5844499999999999 0.20484243122312898 0) 
		(0.5862999999999999 0.20471358017792388 0) 
		(0.58815 0.2045846365742511 0) 
		(0.59 0.2044556092927712 0) 
		(0.5918499999999999 0.20432650727577076 0) 
		(0.5936999999999999 0.20419733952532612 0) 
		(0.5955499999999999 0.20406811510147763 0) 
		(0.5973999999999999 0.20393884312041466 0) 
		(0.59925 0.20380953275267077 0) 
		(0.6011 0.20368019322133016 0) 
		(0.6029499999999999 0.20355083380024488 0) 
		(0.6047999999999999 0.20342146381226092 0) 
		(0.6066499999999999 0.20329209262745765 0) 
		(0.6084999999999999 0.20316272966139678 0) 
		(0.61035 0.2030333843733805 0) 
		(0.6122 0.20290406626472282 0) 
		(0.6140499999999999 0.20277478487702977 0) 
		(0.6158999999999999 0.20264554979049101 0) 
		(0.6177499999999999 0.20251637062218225 0) 
		(0.6195999999999999 0.20238725702437718 0) 
		(0.62145 0.20225821868287144 0) 
		(0.6233 0.20212926531531675 0) 
		(0.6251499999999999 0.2020004066695661 0) 
		(0.6269999999999999 0.20187165252202763 0) 
		(0.6288499999999999 0.2017430126760324 0) 
		(0.6306999999999999 0.20161449696020986 0) 
		(0.63255 0.20148611522687626 0) 
		(0.6344 0.20135787735043156 0) 
		(0.6362499999999999 0.20122979322576962 0) 
		(0.6380999999999999 0.20110187276669528 0) 
		(0.6399499999999999 0.20097412590435734 0) 
		(0.6417999999999999 0.20084656258568687 0) 
		(0.6436499999999999 0.20071919277184916 0) 
		(0.6455 0.20059202643670632 0) 
		(0.6473499999999999 0.2004650735652894 0) 
		(0.6491999999999999 0.2003383441522813 0) 
		(0.6510499999999999 0.20021184820051255 0) 
		(0.6528999999999999 0.20008559571946333 0) 
		(0.6547499999999999 0.199959596723781 0) 
		(0.6566 0.19983386123180452 0) 
		(0.6584499999999999 0.19970839926410228 0) 
		(0.6602999999999999 0.1995832208420181 0) 
		(0.6621499999999999 0.19945833598623045 0) 
		(0.6639999999999999 0.19933375471532008 0) 
		(0.6658499999999999 0.19920948704435062 0) 
		(0.6677 0.1990855429834554 0) 
		(0.6695499999999999 0.19896193253644234 0) 
		(0.6713999999999999 0.19883866569940187 0) 
		(0.6732499999999999 0.19871575245932985 0) 
		(0.6750999999999999 0.19859320279276077 0) 
		(0.6769499999999999 0.19847102666440988 0) 
		(0.6788 0.19834923402582824 0) 
		(0.6806499999999999 0.19822783481406547 0) 
		(0.6824999999999999 0.1981068389503474 0) 
		(0.6843499999999999 0.1979862563387591 0) 
		(0.6861999999999999 0.19786609686494422 0) 
		(0.6880499999999999 0.1977463703948098 0) 
		(0.6899 0.19762708677324578 0) 
		(0.6917499999999999 0.19750825582285192 0) 
		(0.6935999999999999 0.1973898873426791 0) 
		(0.6954499999999999 0.1972719911069764 0) 
		(0.6972999999999999 0.19715457686395477 0) 
		(0.6991499999999999 0.19703765433455434 0) 
		(0.701 0.19692123321122995 0) 
		(0.7028499999999999 0.19680532315674143 0) 
		(0.7046999999999999 0.196689933802956 0) 
		(0.7065499999999999 0.19657507474966535 0) 
		(0.7083999999999999 0.19646075556340611 0) 
		(0.7102499999999999 0.1963469857762982 0) 
		(0.7121 0.19623377488488777 0) 
		(0.7139499999999999 0.19612113234900588 0) 
		(0.7157999999999999 0.19600906759063422 0) 
		(0.7176499999999999 0.19589758999278375 0) 
		(0.7194999999999999 0.19578670889838212 0) 
		(0.7213499999999999 0.1956764336091731 0) 
		(0.7232 0.19556677338462727 0) 
		(0.7250499999999999 0.19545773744085962 0) 
		(0.7268999999999999 0.19534933494956455 0) 
		(0.7287499999999999 0.1952415750369542 0) 
		(0.7305999999999999 0.1951344667827124 0) 
		(0.7324499999999999 0.19502801921895752 0) 
		(0.7343 0.1949222413292144 0) 
		(0.7361499999999999 0.19481714204740208 0) 
		(0.7379999999999999 0.19471273025682623 0) 
		(0.7398499999999999 0.19460901478918508 0) 
		(0.7416999999999999 0.19450600442358623 0) 
		(0.7435499999999999 0.19440370788557287 0) 
		(0.7454 0.1943021338461632 0) 
		(0.7472499999999999 0.19420129092089697 0) 
		(0.7490999999999999 0.19410118766889456 0) 
		(0.7509499999999999 0.19400183259192696 0) 
		(0.7527999999999999 0.19390323413349564 0) 
		(0.7546499999999999 0.19380540067792476 0) 
		(0.7565 0.19370834054946207 0) 
		(0.7583499999999999 0.19361206201138922 0) 
		(0.7601999999999999 0.19351657326514698 0) 
		(0.7620499999999999 0.19342188244946965 0) 
		(0.7638999999999999 0.19332799763952518 0) 
		(0.7657499999999999 0.19323492684607407 0) 
		(0.7676 0.1931426780146346 0) 
		(0.7694499999999999 0.1930512590246546 0) 
		(0.7712999999999999 0.19296067768870467 0) 
		(0.7731499999999999 0.19287094175167105 0) 
		(0.7749999999999999 0.192782058889966 0) 
		(0.7768499999999999 0.1926940367107447 0) 
		(0.7787 0.19260688275113833 0) 
		(0.7805499999999999 0.19252060447748917 0) 
		(0.7823999999999999 0.19243520928460625 0) 
		(0.7842499999999999 0.19235070449502317 0) 
		(0.7860999999999999 0.19226709735827316 0) 
		(0.7879499999999999 0.19218439505016874 0) 
		(0.7898 0.19210260467209922 0) 
		(0.7916499999999999 0.19202173325032995 0) 
		(0.7934999999999999 0.1919417877353217 0) 
		(0.7953499999999999 0.19186277500105225 0) 
		(0.7971999999999999 0.1917847018443556 0) 
		(0.7990499999999999 0.19170757498426644 0) 
		(0.8009 0.1916314010613789 0) 
		(0.80275 0.19155618663721488 0) 
		(0.8045999999999999 0.19148193819359943 0) 
		(0.8064499999999999 0.19140866213205673 0) 
		(0.8082999999999999 0.19133636477320273 0) 
		(0.8101499999999999 0.19126505235616062 0) 
		(0.8119999999999999 0.19119473103798176 0) 
		(0.81385 0.19112540689307453 0) 
		(0.8156999999999999 0.1910570859126525 0) 
		(0.8175499999999999 0.19098977400418088 0) 
		(0.8193999999999999 0.19092347699084686 0) 
		(0.8212499999999999 0.190858200611031 0) 
		(0.8230999999999999 0.1907939505177928 0) 
		(0.82495 0.19073073227836732 0) 
		(0.8267999999999999 0.19066855137367208 0) 
		(0.8286499999999999 0.1906074131978216 0) 
		(0.8304999999999999 0.19054732305766087 0) 
		(0.8323499999999999 0.19048828617229818 0) 
		(0.8341999999999999 0.1904303076726577 0) 
		(0.83605 0.19037339260103944 0) 
		(0.8378999999999999 0.19031754591068759 0) 
		(0.8397499999999999 0.19026277246537496 0) 
		(0.8415999999999999 0.19020907703899106 0) 
		(0.8434499999999999 0.19015646431514846 0) 
		(0.8452999999999999 0.1901049388867933 0) 
		(0.84715 0.1900545052558307 0) 
		(0.8489999999999999 0.1900051678327595 0) 
		(0.85085 0.18995693093631486 0) 
		(0.8526999999999999 0.18990979879312822 0) 
		(0.8545499999999998 0.18986377553739153 0) 
		(0.8563999999999999 0.18981886521053362 0) 
		(0.8582499999999998 0.1897750717609078 0) 
		(0.8601 0.18973239904349587 0) 
		(0.8619499999999999 0.18969085081960846 0) 
		(0.8638 0.18965043075661261 0) 
		(0.8656499999999999 0.18961114242765797 0) 
		(0.8674999999999998 0.1895729893114171 0) 
		(0.86935 0.18953597479184392 0) 
		(0.8711999999999999 0.1895001021579279 0) 
		(0.87305 0.18946537460347038 0) 
		(0.8748999999999999 0.18943179522687173 0) 
		(0.8767499999999998 0.18939936703092336 0) 
		(0.8785999999999999 0.1893680929226056 0) 
		(0.8804499999999998 0.18933797571291902 0) 
		(0.8823 0.1893090181166954 0) 
		(0.8841499999999999 0.18928122275244688 0) 
		(0.886 0.18925459214220264 0) 
		(0.8878499999999999 0.18922912871137942 0) 
		(0.8896999999999998 0.18920483478863612 0) 
		(0.89155 0.18918171260576908 0) 
		(0.8933999999999999 0.1891597642975921 0) 
		(0.89525 0.18913899190184005 0) 
		(0.8970999999999999 0.18911939735907904 0) 
		(0.8989499999999998 0.1891009825126338 0) 
		(0.9007999999999999 0.1890837491085178 0) 
		(0.9026499999999998 0.1890676987953713 0) 
		(0.9045 0.18905283312442803 0) 
		(0.9063499999999999 0.1890391535494681 0) 
		(0.9082 0.18902666142680166 0) 
		(0.9100499999999999 0.1890153580152507 0) 
		(0.9118999999999998 0.18900524447614891 0) 
		(0.91375 0.18899632187334772 0) 
		(0.9155999999999999 0.18898859117323258 0) 
		(0.91745 0.18898205324475906 0) 
		(0.9192999999999999 0.18897670885948292 0) 
		(0.9211499999999998 0.18897255869161822 0) 
		(0.9229999999999999 0.18896960331809384 0) 
		(0.9248499999999998 0.1889678432186278 0) 
		(0.9267 0.1889672787758059 0) 
		(0.9285499999999999 0.18896791027517937 0) 
		(0.9304 0.18896973790536517 0) 
		(0.9322499999999999 0.1889727617581596 0) 
		(0.9340999999999998 0.1889769818286671 0) 
		(0.93595 0.18898239801543232 0) 
		(0.9377999999999999 0.1889890101205854 0) 
		(0.93965 0.18899681785000466 0) 
		(0.9414999999999999 0.18900582081347686 0) 
		(0.9433499999999998 0.18901601852488237 0) 
		(0.9451999999999999 0.18902741040237542 0) 
		(0.9470499999999998 0.1890399957685948 0) 
		(0.9489 0.1890537738508627 0) 
		(0.9507499999999999 0.18906874378141447 0) 
		(0.9526 0.18908490459762453 0) 
		(0.9544499999999999 0.18910225524225016 0) 
		(0.9562999999999998 0.18912079456368538 0) 
		(0.95815 0.18914052131622375 0) 
		(0.9599999999999999 0.18916143416033337 0) 
		(0.96185 0.18918353166293736 0) 
		(0.9636999999999999 0.18920681229771555 0) 
		(0.9655499999999998 0.1892312744454074 0) 
		(0.9673999999999999 0.18925691639412742 0) 
		(0.9692499999999998 0.18928373633969678 0) 
		(0.9711 0.18931173238597554 0) 
		(0.9729499999999999 0.18934090254521788 0) 
		(0.9748 0.18937124473842726 0) 
		(0.9766499999999999 0.18940275679572696 0) 
		(0.9784999999999998 0.18943543645674082 0) 
		(0.9803499999999999 0.1894692813709872 0) 
		(0.9821999999999999 0.18950428909827818 0) 
		(0.98405 0.18954045710913298 0) 
		(0.9858999999999999 0.18957778278520093 0) 
		(0.9877499999999998 0.18961626341969773 0) 
		(0.9895999999999999 0.1896558962178456 0) 
		(0.9914499999999998 0.1896966782973364 0) 
		(0.9933 0.18973860668878695 0) 
		(0.9951499999999999 0.18978167833622608 0) 
		(0.997 0.18982589009757508 0) 
		(0.9988499999999999 0.18987123874514747 0) 
		(1.0007 0.18991772096616055 0) 
		(1.00255 0.18996533336325108 0) 
		(1.0044 0.19001407245500435 0) 
		(1.00625 0.19006393467650087 0) 
		(1.0081 0.19011491637985986 0) 
		(1.00995 0.19016701383480925 0) 
		(1.0118 0.19022022322924878 0) 
		(1.01365 0.19027454066984334 0) 
		(1.0155 0.1903299621826098 0) 
		(1.01735 0.190386483713525 0) 
		(1.0192 0.1904441011291393 0) 
		(1.02105 0.19050281021720142 0) 
		(1.0229 0.19056260668729932 0) 
		(1.02475 0.19062348617150493 0) 
		(1.0266 0.19068544422502823 0) 
		(1.02845 0.19074847632689335 0) 
		(1.0303 0.19081257788061215 0) 
		(1.03215 0.19087774421487538 0) 
		(1.034 0.19094397058425375 0) 
		(1.03585 0.19101125216991183 0) 
		(1.0377 0.1910795840803221 0) 
		(1.03955 0.19114896135200518 0) 
		(1.0414 0.19121937895027122 0) 
		(1.04325 0.19129083176996747 0) 
		(1.0451 0.19136331463625691 0) 
		(1.04695 0.19143682230537573 0) 
		(1.0488 0.19151134946543188 0) 
		(1.05065 0.19158689073719778 0) 
		(1.0525 0.19166344067491478 0) 
		(1.05435 0.19174099376711526 0) 
		(1.0562 0.1918195444374483 0) 
		(1.05805 0.19189908704552064 0) 
		(1.0599 0.19197961588774476 0) 
		(1.06175 0.19206112519819765 0) 
		(1.0636 0.19214360914949774 0) 
		(1.06545 0.19222706185368016 0) 
		(1.0673 0.1923114773630944 0) 
		(1.06915 0.19239684967130175 0) 
		(1.071 0.19248317271399437 0) 
		(1.07285 0.19257044036992102 0) 