/*--------------------------------*- C++ -*----------------------------------*\
| =========                 |                                                 |
| \\      /  F ield         | OpenFOAM: The Open Source CFD Toolbox           |
|  \\    /   O peration     | Version:  v2312                                 |
|   \\  /    A nd           | Website:  www.openfoam.com                      |
|    \\/     M anipulation  |                                                 |
\*---------------------------------------------------------------------------*/
FoamFile
{
    version     2.0;
    format      ascii;
    class       dictionary;
    object      fvSchemes;
}
// * * * * * * * * * * * * * * * * * * * * * * * * * * * * * * * * * * * * * //

ddtSchemes
{
    default         steadyState;
}

gradSchemes
{
    default         Gauss linear;
    limitedGauss    cellLimited Gauss linear 1;
}

divSchemes
{
    default             none;

    div(phi,U)          bounded Gauss linearUpwindV limitedGauss;

    turbulence          bounded Gauss limitedLinear 1;
    div(phi,k)          $turbulence;
    div(phi,omega)      $turbulence;
    div(phi,gammaInt)   $turbulence;
    div(phi,ReThetat)   $turbulence;

    div((nuEff*dev2(T(grad(U))))) Gauss linear;
    div(nonlinearStress) Gauss linear; 
}

laplacianSchemes
{
    default         Gauss linear corrected;
}

interpolationSchemes
{
    default         linear;
}

snGradSchemes
{
    default         corrected;
}

wallDist
{
    method          meshWave;
}


// ************************************************************************* //
